#This code has been changed and then uploaded to Git Directly. 

[General]
network = ComputerNetwork
record-eventlog = true
sim-time-limit = 500s
