#This is some change in the subbranch. 

[General]
network = ComputerNetwork
record-eventlog = true
sim-time-limit = 500s
